fed_gridlabd/TE_Challenge.glm
#set double_format=%+.12lg
#set profiler=1
#set randomseed=10
#set relax_naming_rules=1
#set savefile=test.xml
#set minimum_timestep=1

clock {
	timezone PST+8PDT;
	starttime '2013-07-01 00:00:00';
	stoptime '2013-07-05 00:00:00';
}

module climate;
module market;
module powerflow {
	solver_method FBS;
	NR_iteration_limit 100;
}
module residential {
	implicit_enduses NONE;
}
module tape;
module generators;

// only the heating setpoint schedule is used here
#include "${SCHED_PATH}/water_and_setpoint_schedule_v3.glm";
#include "${SCHED_PATH}/appliance_schedules.glm";

// summer
#define FIXED_PRICE=0.127
// winter
//#define FIXED_PRICE=0.088

object climate {
  name localWeather;
//     tmyfile "../../support/weather/AZ-Tucson_International_Ap.tmy3";
  interpolate QUADRATIC;
	latitude 32.133;
	longitude -111.95;
  tz_meridian -105.0;
}


class player {
      double value;
}

object player {
    name PHASE_A;
    file "phase_A.player";
    loop 1;
}
object player {
    name PHASE_B;
    file "phase_B.player";
    loop 1;
}
object player {
    name PHASE_C;
    file "phase_C.player";
    loop 1;
}

object transformer_configuration {
	name substation_config;
	connect_type WYE_WYE;
	install_type PADMOUNT;
	power_rating 450;
	powerA_rating 150 kVA;
	powerB_rating 150;
	powerC_rating 150;
	primary_voltage 133000;
	secondary_voltage 7200;
	impedance +0.0015+0.00675j;
}

object transformer_configuration {
	name default_transformer_A;
	connect_type SINGLE_PHASE_CENTER_TAPPED;
	install_type PADMOUNT;
	power_rating 150;
	powerA_rating 150 kVA;
	primary_voltage 7200;
	secondary_voltage 120;
	impedance +0.015+0.0675j;
}

object transformer_configuration {
	name default_transformer_B;
	connect_type SINGLE_PHASE_CENTER_TAPPED;
	install_type PADMOUNT;
	power_rating 150;
	powerB_rating 150;
	primary_voltage 7200;
	secondary_voltage 120;
	impedance +0.015+0.0675j;
}

object transformer_configuration {
	name default_transformer_C;
	connect_type SINGLE_PHASE_CENTER_TAPPED;
	install_type PADMOUNT;
	power_rating 150;
	powerC_rating 150;
	primary_voltage 7200;
	secondary_voltage 120;
	impedance +0.015+0.0675j;
}

// overhead line configuration
object line_configuration:601 {
  spacing line_spacing:500601;
  conductor_N overhead_line_conductor:6020;
  conductor_C overhead_line_conductor:6010;
  conductor_B overhead_line_conductor:6010;
  conductor_A overhead_line_conductor:6010;
}

object line_spacing:500601 {
  distance_CN 5.0;
  distance_AN 4.272002;
  distance_BN 5.656854;
  distance_BC 7.0;
  distance_AC 4.5;
  distance_AB 2.5;
}

object overhead_line_conductor:6010 {
  resistance 0.185900;
  geometric_mean_radius 0.031300;
}

object overhead_line_conductor:6020 {
  resistance 0.592000;
  geometric_mean_radius 0.00814;
}


object triplex_line_conductor {
	name Name_1_0_AA_triplex;
	resistance 0.57;
	geometric_mean_radius 0.011;
}

object triplex_line_configuration {
	name TLCFG;
	conductor_1 Name_1_0_AA_triplex;
	conductor_2 Name_1_0_AA_triplex;
	conductor_N Name_1_0_AA_triplex;
	insulation_thickness 0.08;
	diameter 0.368;
}



// substation for the MATPOWER/PYPOWER interface
object substation {
	name network_node;
	phases ABCN;
	nominal_voltage 133000;
	positive_sequence_voltage 133000;
	bustype SWING;
    base_power 12MVA;
    power_convergence_value 100VA;
}

// substation transformer
object transformer {
	name sub_transformer;
	groupid Network_Trans;
	phases ABCN;
	from network_node;
	to transformer_meter;
	configuration substation_config;
}

// transformer meter
object meter {
	name transformer_meter;
	phases ABCN;
	nominal_voltage 7200;
}

// unresponsive load
object load {
     name unresp_load;
     nominal_voltage 7200;
     phases ABCN;
     parent transformer_meter;
	 
     base_power_A PHASE_A.value*0.1;
     base_power_B PHASE_B.value*0.1;
     base_power_C PHASE_C.value*0.1;
	 
	 power_pf_A 0.9;
	 power_pf_B 0.9;
	 power_pf_C 0.9;
	 
	 power_fraction_A 1.0;
	 power_fraction_B 1.0;
	 power_fraction_C 1.0;
	 
	 current_fraction_A 0.0;
	 current_fraction_B 0.0;
	 current_fraction_C 0.0;
	 
	 impedance_fraction_A 0.0;
	 impedance_fraction_B 0.0;
	 impedance_fraction_C 0.0;
}

///////////////////////////////
///////code generated by python
///////////////////////////////

object transformer {
	name F0_center_tap_transformer_A;
	phases SA;
	from transformer_meter;
	to F0_triplex_node_A;
	configuration default_transformer_A;
}

object triplex_meter {
	name F0_triplex_node_A;
	phases SA;
	nominal_voltage 120;
    groupid VPP_Meter;
}


object triplex_line {
	phases AS;
	from F0_triplex_node_A;
	to H0_meter_billing;
	length 10 ft;
	configuration TLCFG;
}

object triplex_meter {
	name H0_meter_billing;
	phases AS;
	nominal_voltage 120;
	bill_mode UNIFORM;
    bill_day 1;
    monthly_fee 6;
    price ${FIXED_PRICE};
}

object triplex_line {
	phases AS;
	from H0_meter_billing;
	to H0_meter_house;
	length 10 ft;
	configuration TLCFG;
}

object triplex_meter {
	name H0_meter_house;
	groupid F0_meter;
	phases AS;
	nominal_voltage 120;
}

object house {
	name H0;
    groupid VPP_0;
	parent H0_meter_house;
	schedule_skew -368;
	Rroof 31.756;
	Rwall 22.139000000000003;
	Rfloor 13.275;
	Rdoors 5;
	Rwindows 1.921;
	airchange_per_hour 0.97;
	hvac_power_factor 0.97;
	cooling_system_type ELECTRIC;
	heating_system_type GAS;
	fan_type ONE_SPEED;
	hvac_breaker_rating 200;
	total_thermal_mass_per_floor_area 2.9490000000000003;
	motor_efficiency AVERAGE;
	motor_model BASIC;
	cooling_COP 4.126;
	floor_area 2695.982;
	number_of_doors 3;
	air_temperature 71.135;
	mass_temperature 71.135;
    system_mode COOL;
    thermostat_cycle_time 5;
    thermostat_mode OFF;
    cooling_setpoint 20;
	heating_setpoint 20;

    object ZIPload {
  schedule_skew -368;
  heat_fraction 0.702;
  base_power LIGHTS*2.9877;
  power_pf 0;
  power_fraction 0;
  current_pf 0;
  current_fraction 0;
  impedance_pf 1;
  impedance_fraction 1;
};
object ZIPload {
  schedule_skew -368;
  heat_fraction 0.837;
  base_power CLOTHESWASHER*0.9038;
  power_pf 0.97;
  power_fraction 1;
  current_pf 0.97;
  current_fraction 0;
  impedance_pf 0.97;
  impedance_fraction 0;
};
object ZIPload {
  schedule_skew -368;
  heat_fraction 0.901;
  base_power REFRIGERATOR*1.3202;
  power_pf 0.97;
  power_fraction 1;
  current_pf 0.97;
  current_fraction 0;
  impedance_pf 0.97;
  impedance_fraction 0;
};
object ZIPload {
  schedule_skew -368;
  heat_fraction 0.957;
  base_power DRYER*1.2306;
  power_pf 0.9;
  power_fraction 0.1;
  current_pf 0.9;
  current_fraction 0.1;
  impedance_pf 1;
  impedance_fraction 0.8;
};
object ZIPload {
  schedule_skew -368;
  heat_fraction 0.928;
  base_power DISHWASHER*1.7438;
  power_pf 0.97;
  power_fraction 1;
  current_pf 0.97;
  current_fraction 0;
  impedance_pf 0.97;
  impedance_fraction 0;
};
object ZIPload {
  schedule_skew -368;
  heat_fraction 0.922;
  base_power RANGE*1.2505;
  power_pf 0;
  power_fraction 0;
  current_pf 0;
  current_fraction 0;
  impedance_pf 1;
  impedance_fraction 1;
};
object ZIPload {
  schedule_skew -368;
  heat_fraction 0.786;
  base_power MICROWAVE*1.2792;
  power_pf 0.97;
  power_fraction 1;
  current_pf 0.97;
  current_fraction 0;
  impedance_pf 0.97;
  impedance_fraction 0;
};

}
object triplex_line {
	phases AS;
	from H0_meter_billing;
	to H0_ev_meter;
	length 10 ft;
	configuration TLCFG;
}

object triplex_meter {
	name H0_ev_meter;
	phases AS;
	nominal_voltage 120;
}

object load {
    name H0_ev;
    parent H0_ev_meter;
};
object triplex_line {
	phases AS;
	from H0_meter_billing;
	to H0_solar_meter;
	length 10 ft;
	configuration TLCFG;
}

object triplex_meter {
	name H0_solar_meter;
	phases AS;
	nominal_voltage 120;
	groupid inverter_meter;
}

object inverter {
	name H0_solar_inv;
    parent H0_solar_meter;
	phases AS;
	inverter_type FOUR_QUADRANT;
	power_factor 1;
	// use_multipoint_efficiency TRUE;
	inverter_manufacturer XANTREX;
	maximum_dc_power 3456.0; 
	four_quadrant_control_mode CONSTANT_PQ;
	generator_status ONLINE;
	rated_power 3456.0;	
	inverter_efficiency 0.90;
	Q_Out 0;
    P_Out 0;
	object solar {
		name H0_solar;
		// generator_mode SUPPLY_DRIVEN;
		// generator_status ONLINE;
		panel_type SINGLE_CRYSTAL_SILICON;
		orientation FIXED_AXIS; 
		rated_power 3840;
	};
}



object triplex_line {
	phases AS;
	from F0_triplex_node_A;
	to H1_meter_billing;
	length 10 ft;
	configuration TLCFG;
}

object triplex_meter {
	name H1_meter_billing;
	phases AS;
	nominal_voltage 120;
	bill_mode UNIFORM;
    bill_day 1;
    monthly_fee 6;
    price ${FIXED_PRICE};
}

object triplex_line {
	phases AS;
	from H1_meter_billing;
	to H1_meter_house;
	length 10 ft;
	configuration TLCFG;
}

object triplex_meter {
	name H1_meter_house;
	groupid F0_meter;
	phases AS;
	nominal_voltage 120;
}

object house {
	name H1;
    groupid VPP_0;
	parent H1_meter_house;
	schedule_skew -2739;
	Rroof 17.397000000000002;
	Rwall 8.682;
	Rfloor 11.660000000000002;
	Rdoors 3;
	Rwindows 1.1280000000000001;
	airchange_per_hour 0.916;
	hvac_power_factor 0.97;
	cooling_system_type ELECTRIC;
	heating_system_type GAS;
	fan_type ONE_SPEED;
	hvac_breaker_rating 200;
	total_thermal_mass_per_floor_area 3.398;
	motor_efficiency AVERAGE;
	motor_model BASIC;
	cooling_COP 3.613;
	floor_area 1270.481;
	number_of_doors 2;
	air_temperature 68.631;
	mass_temperature 68.631;
    system_mode COOL;
    thermostat_cycle_time 5;
    thermostat_mode OFF;
    cooling_setpoint 20;
	heating_setpoint 20;

    object ZIPload {
  schedule_skew -2739;
  heat_fraction 0.709;
  base_power LIGHTS*2.4618;
  power_pf -0.78;
  power_fraction 0.6;
  current_pf 0.42;
  current_fraction 0;
  impedance_pf -0.88;
  impedance_fraction 0.4;
};
object ZIPload {
  schedule_skew -2739;
  heat_fraction 0.692;
  base_power CLOTHESWASHER*0.6618;
  power_pf 0.97;
  power_fraction 1;
  current_pf 0.97;
  current_fraction 0;
  impedance_pf 0.97;
  impedance_fraction 0;
};
object ZIPload {
  schedule_skew -2739;
  heat_fraction 0.818;
  base_power REFRIGERATOR*0.5206;
  power_pf 0.97;
  power_fraction 1;
  current_pf 0.97;
  current_fraction 0;
  impedance_pf 0.97;
  impedance_fraction 0;
};
object ZIPload {
  schedule_skew -2739;
  heat_fraction 0.744;
  base_power DRYER*1.2617;
  power_pf 0.9;
  power_fraction 0.1;
  current_pf 0.9;
  current_fraction 0.1;
  impedance_pf 1;
  impedance_fraction 0.8;
};
object ZIPload {
  schedule_skew -2739;
  heat_fraction 0.677;
  base_power RANGE*0.9234;
  power_pf 0;
  power_fraction 0;
  current_pf 0;
  current_fraction 0;
  impedance_pf 1;
  impedance_fraction 1;
};
object ZIPload {
  schedule_skew -2739;
  heat_fraction 0.863;
  base_power MICROWAVE*0.9539;
  power_pf 0.97;
  power_fraction 1;
  current_pf 0.97;
  current_fraction 0;
  impedance_pf 0.97;
  impedance_fraction 0;
};

}
object triplex_line {
	phases AS;
	from H1_meter_billing;
	to H1_ev_meter;
	length 10 ft;
	configuration TLCFG;
}

object triplex_meter {
	name H1_ev_meter;
	phases AS;
	nominal_voltage 120;
}

object load {
    name H1_ev;
    parent H1_ev_meter;
};
object triplex_line {
	phases AS;
	from H1_meter_billing;
	to H1_solar_meter;
	length 10 ft;
	configuration TLCFG;
}

object triplex_meter {
	name H1_solar_meter;
	phases AS;
	nominal_voltage 120;
	groupid inverter_meter;
}

object inverter {
	name H1_solar_inv;
    parent H1_solar_meter;
	phases AS;
	inverter_type FOUR_QUADRANT;
	power_factor 1;
	// use_multipoint_efficiency TRUE;
	inverter_manufacturer XANTREX;
	maximum_dc_power 3456.0; 
	four_quadrant_control_mode CONSTANT_PQ;
	generator_status ONLINE;
	rated_power 3456.0;	
	inverter_efficiency 0.90;
	Q_Out 0;
    P_Out 0;
	object solar {
		name H1_solar;
		// generator_mode SUPPLY_DRIVEN;
		// generator_status ONLINE;
		panel_type SINGLE_CRYSTAL_SILICON;
		orientation FIXED_AXIS; 
		rated_power 3840;
	};
}



object triplex_line {
	phases AS;
	from F0_triplex_node_A;
	to H2_meter_billing;
	length 10 ft;
	configuration TLCFG;
}

object triplex_meter {
	name H2_meter_billing;
	phases AS;
	nominal_voltage 120;
	bill_mode UNIFORM;
    bill_day 1;
    monthly_fee 6;
    price ${FIXED_PRICE};
}

object triplex_line {
	phases AS;
	from H2_meter_billing;
	to H2_meter_house;
	length 10 ft;
	configuration TLCFG;
}

object triplex_meter {
	name H2_meter_house;
	groupid F0_meter;
	phases AS;
	nominal_voltage 120;
}

object house {
	name H2;
    groupid VPP_0;
	parent H2_meter_house;
	schedule_skew -886;
	Rroof 27.881;
	Rwall 22.724;
	Rfloor 14.334999999999999;
	Rdoors 5;
	Rwindows 1.28;
	airchange_per_hour 1.042;
	hvac_power_factor 0.97;
	cooling_system_type ELECTRIC;
	heating_system_type GAS;
	fan_type ONE_SPEED;
	hvac_breaker_rating 200;
	total_thermal_mass_per_floor_area 4.395;
	motor_efficiency AVERAGE;
	motor_model BASIC;
	cooling_COP 3.9369999999999994;
	floor_area 1354.5739999999998;
	number_of_doors 2;
	air_temperature 71.024;
	mass_temperature 71.024;
    system_mode COOL;
    thermostat_cycle_time 5;
    thermostat_mode OFF;
    cooling_setpoint 20;
	heating_setpoint 20;

    object ZIPload {
  schedule_skew -886;
  heat_fraction 0.851;
  base_power LIGHTS*0.9811;
  power_pf 0;
  power_fraction 0;
  current_pf 0;
  current_fraction 0;
  impedance_pf 1;
  impedance_fraction 1;
};
object ZIPload {
  schedule_skew -886;
  heat_fraction 0.83;
  base_power CLOTHESWASHER*0.5962;
  power_pf 0.97;
  power_fraction 1;
  current_pf 0.97;
  current_fraction 0;
  impedance_pf 0.97;
  impedance_fraction 0;
};
object ZIPload {
  schedule_skew -886;
  heat_fraction 0.671;
  base_power REFRIGERATOR*1.1742;
  power_pf 0.97;
  power_fraction 1;
  current_pf 0.97;
  current_fraction 0;
  impedance_pf 0.97;
  impedance_fraction 0;
};
object ZIPload {
  schedule_skew -886;
  heat_fraction 0.924;
  base_power DRYER*0.6654;
  power_pf 0.9;
  power_fraction 0.1;
  current_pf 0.9;
  current_fraction 0.1;
  impedance_pf 1;
  impedance_fraction 0.8;
};
object ZIPload {
  schedule_skew -886;
  heat_fraction 0.923;
  base_power RANGE*0.4997;
  power_pf 0;
  power_fraction 0;
  current_pf 0;
  current_fraction 0;
  impedance_pf 1;
  impedance_fraction 1;
};
object ZIPload {
  schedule_skew -886;
  heat_fraction 0.693;
  base_power MICROWAVE*0.5191;
  power_pf 0.97;
  power_fraction 1;
  current_pf 0.97;
  current_fraction 0;
  impedance_pf 0.97;
  impedance_fraction 0;
};

}
object triplex_line {
	phases AS;
	from H2_meter_billing;
	to H2_ev_meter;
	length 10 ft;
	configuration TLCFG;
}

object triplex_meter {
	name H2_ev_meter;
	phases AS;
	nominal_voltage 120;
}

object load {
    name H2_ev;
    parent H2_ev_meter;
};
object triplex_line {
	phases AS;
	from H2_meter_billing;
	to H2_solar_meter;
	length 10 ft;
	configuration TLCFG;
}

object triplex_meter {
	name H2_solar_meter;
	phases AS;
	nominal_voltage 120;
	groupid inverter_meter;
}

object inverter {
	name H2_solar_inv;
    parent H2_solar_meter;
	phases AS;
	inverter_type FOUR_QUADRANT;
	power_factor 1;
	// use_multipoint_efficiency TRUE;
	inverter_manufacturer XANTREX;
	maximum_dc_power 5616.0; 
	four_quadrant_control_mode CONSTANT_PQ;
	generator_status ONLINE;
	rated_power 5616.0;	
	inverter_efficiency 0.90;
	Q_Out 0;
    P_Out 0;
	object solar {
		name H2_solar;
		// generator_mode SUPPLY_DRIVEN;
		// generator_status ONLINE;
		panel_type SINGLE_CRYSTAL_SILICON;
		orientation FIXED_AXIS; 
		rated_power 6240;
	};
}



object triplex_line {
	phases AS;
	from F0_triplex_node_A;
	to H3_meter_billing;
	length 10 ft;
	configuration TLCFG;
}

object triplex_meter {
	name H3_meter_billing;
	phases AS;
	nominal_voltage 120;
	bill_mode UNIFORM;
    bill_day 1;
    monthly_fee 6;
    price ${FIXED_PRICE};
}

object triplex_line {
	phases AS;
	from H3_meter_billing;
	to H3_meter_house;
	length 10 ft;
	configuration TLCFG;
}

object triplex_meter {
	name H3_meter_house;
	groupid F0_meter;
	phases AS;
	nominal_voltage 120;
}

object house {
	name H3;
    groupid VPP_0;
	parent H3_meter_house;
	schedule_skew 2934;
	Rroof 30.87;
	Rwall 17.354999999999997;
	Rfloor 13.920000000000002;
	Rdoors 5;
	Rwindows 2.091;
	airchange_per_hour 1.167;
	hvac_power_factor 0.97;
	cooling_system_type ELECTRIC;
	heating_system_type GAS;
	fan_type ONE_SPEED;
	hvac_breaker_rating 200;
	total_thermal_mass_per_floor_area 3.4760000000000004;
	motor_efficiency AVERAGE;
	motor_model BASIC;
	cooling_COP 4.091;
	floor_area 1418.1440000000002;
	number_of_doors 2;
	air_temperature 70.036;
	mass_temperature 70.036;
    system_mode COOL;
    thermostat_cycle_time 5;
    thermostat_mode OFF;
    cooling_setpoint 20;
	heating_setpoint 20;

    object ZIPload {
  schedule_skew 2934;
  heat_fraction 0.73;
  base_power LIGHTS*1.8146;
  power_pf -0.78;
  power_fraction 0.6;
  current_pf 0.42;
  current_fraction 0;
  impedance_pf -0.88;
  impedance_fraction 0.4;
};
object ZIPload {
  schedule_skew 2934;
  heat_fraction 0.66;
  base_power CLOTHESWASHER*0.5212;
  power_pf 0.97;
  power_fraction 1;
  current_pf 0.97;
  current_fraction 0;
  impedance_pf 0.97;
  impedance_fraction 0;
};
object ZIPload {
  schedule_skew 2934;
  heat_fraction 0.723;
  base_power REFRIGERATOR*1.1318;
  power_pf 0.97;
  power_fraction 1;
  current_pf 0.97;
  current_fraction 0;
  impedance_pf 0.97;
  impedance_fraction 0;
};
object ZIPload {
  schedule_skew 2934;
  heat_fraction 0.851;
  base_power DRYER*1.2189;
  power_pf 0.9;
  power_fraction 0.1;
  current_pf 0.9;
  current_fraction 0.1;
  impedance_pf 1;
  impedance_fraction 0.8;
};
object ZIPload {
  schedule_skew 2934;
  heat_fraction 0.776;
  base_power DISHWASHER*0.7379;
  power_pf 0.97;
  power_fraction 1;
  current_pf 0.97;
  current_fraction 0;
  impedance_pf 0.97;
  impedance_fraction 0;
};
object ZIPload {
  schedule_skew 2934;
  heat_fraction 0.929;
  base_power RANGE*0.5542;
  power_pf 0;
  power_fraction 0;
  current_pf 0;
  current_fraction 0;
  impedance_pf 1;
  impedance_fraction 1;
};
object ZIPload {
  schedule_skew 2934;
  heat_fraction 0.873;
  base_power MICROWAVE*0.5019;
  power_pf 0.97;
  power_fraction 1;
  current_pf 0.97;
  current_fraction 0;
  impedance_pf 0.97;
  impedance_fraction 0;
};

}
object triplex_line {
	phases AS;
	from H3_meter_billing;
	to H3_ev_meter;
	length 10 ft;
	configuration TLCFG;
}

object triplex_meter {
	name H3_ev_meter;
	phases AS;
	nominal_voltage 120;
}

object load {
    name H3_ev;
    parent H3_ev_meter;
};
object triplex_line {
	phases AS;
	from H3_meter_billing;
	to H3_solar_meter;
	length 10 ft;
	configuration TLCFG;
}

object triplex_meter {
	name H3_solar_meter;
	phases AS;
	nominal_voltage 120;
	groupid inverter_meter;
}

object inverter {
	name H3_solar_inv;
    parent H3_solar_meter;
	phases AS;
	inverter_type FOUR_QUADRANT;
	power_factor 1;
	// use_multipoint_efficiency TRUE;
	inverter_manufacturer XANTREX;
	maximum_dc_power 6480.0; 
	four_quadrant_control_mode CONSTANT_PQ;
	generator_status ONLINE;
	rated_power 6480.0;	
	inverter_efficiency 0.90;
	Q_Out 0;
    P_Out 0;
	object solar {
		name H3_solar;
		// generator_mode SUPPLY_DRIVEN;
		// generator_status ONLINE;
		panel_type SINGLE_CRYSTAL_SILICON;
		orientation FIXED_AXIS; 
		rated_power 7200;
	};
}



object triplex_line {
	phases AS;
	from F0_triplex_node_A;
	to H4_meter_billing;
	length 10 ft;
	configuration TLCFG;
}

object triplex_meter {
	name H4_meter_billing;
	phases AS;
	nominal_voltage 120;
	bill_mode UNIFORM;
    bill_day 1;
    monthly_fee 6;
    price ${FIXED_PRICE};
}

object triplex_line {
	phases AS;
	from H4_meter_billing;
	to H4_meter_house;
	length 10 ft;
	configuration TLCFG;
}

object triplex_meter {
	name H4_meter_house;
	groupid F0_meter;
	phases AS;
	nominal_voltage 120;
}

object house {
	name H4;
    groupid VPP_0;
	parent H4_meter_house;
	schedule_skew -487;
	Rroof 16.695999999999998;
	Rwall 6.053;
	Rfloor 6.354;
	Rdoors 3;
	Rwindows 1.407;
	airchange_per_hour 1.327;
	hvac_power_factor 0.97;
	cooling_system_type ELECTRIC;
	heating_system_type GAS;
	fan_type ONE_SPEED;
	hvac_breaker_rating 200;
	total_thermal_mass_per_floor_area 3.189;
	motor_efficiency AVERAGE;
	motor_model BASIC;
	cooling_COP 2.412;
	floor_area 862.443;
	number_of_doors 1;
	air_temperature 70.422;
	mass_temperature 70.422;
    system_mode COOL;
    thermostat_cycle_time 5;
    thermostat_mode OFF;
    cooling_setpoint 20;
	heating_setpoint 20;

    object ZIPload {
  schedule_skew -487;
  heat_fraction 0.86;
  base_power LIGHTS*0.8293;
  power_pf -0.78;
  power_fraction 0.6;
  current_pf 0.42;
  current_fraction 0;
  impedance_pf -0.88;
  impedance_fraction 0.4;
};
object ZIPload {
  schedule_skew -487;
  heat_fraction 0.687;
  base_power CLOTHESWASHER*0.9734;
  power_pf 0.97;
  power_fraction 1;
  current_pf 0.97;
  current_fraction 0;
  impedance_pf 0.97;
  impedance_fraction 0;
};
object ZIPload {
  schedule_skew -487;
  heat_fraction 0.888;
  base_power REFRIGERATOR*0.7271;
  power_pf 0.97;
  power_fraction 1;
  current_pf 0.97;
  current_fraction 0;
  impedance_pf 0.97;
  impedance_fraction 0;
};
object ZIPload {
  schedule_skew -487;
  heat_fraction 0.656;
  base_power DRYER*0.4851;
  power_pf 0.9;
  power_fraction 0.1;
  current_pf 0.9;
  current_fraction 0.1;
  impedance_pf 1;
  impedance_fraction 0.8;
};
object ZIPload {
  schedule_skew -487;
  heat_fraction 0.753;
  base_power DISHWASHER*0.6316;
  power_pf 0.97;
  power_fraction 1;
  current_pf 0.97;
  current_fraction 0;
  impedance_pf 0.97;
  impedance_fraction 0;
};
object ZIPload {
  schedule_skew -487;
  heat_fraction 0.71;
  base_power RANGE*0.8467;
  power_pf 0;
  power_fraction 0;
  current_pf 0;
  current_fraction 0;
  impedance_pf 1;
  impedance_fraction 1;
};
object ZIPload {
  schedule_skew -487;
  heat_fraction 0.868;
  base_power MICROWAVE*0.5315;
  power_pf 0.97;
  power_fraction 1;
  current_pf 0.97;
  current_fraction 0;
  impedance_pf 0.97;
  impedance_fraction 0;
};

}
object triplex_line {
	phases AS;
	from H4_meter_billing;
	to H4_ev_meter;
	length 10 ft;
	configuration TLCFG;
}

object triplex_meter {
	name H4_ev_meter;
	phases AS;
	nominal_voltage 120;
}

object load {
    name H4_ev;
    parent H4_ev_meter;
};
object triplex_line {
	phases AS;
	from H4_meter_billing;
	to H4_solar_meter;
	length 10 ft;
	configuration TLCFG;
}

object triplex_meter {
	name H4_solar_meter;
	phases AS;
	nominal_voltage 120;
	groupid inverter_meter;
}

object inverter {
	name H4_solar_inv;
    parent H4_solar_meter;
	phases AS;
	inverter_type FOUR_QUADRANT;
	power_factor 1;
	// use_multipoint_efficiency TRUE;
	inverter_manufacturer XANTREX;
	maximum_dc_power 7776.0; 
	four_quadrant_control_mode CONSTANT_PQ;
	generator_status ONLINE;
	rated_power 7776.0;	
	inverter_efficiency 0.90;
	Q_Out 0;
    P_Out 0;
	object solar {
		name H4_solar;
		// generator_mode SUPPLY_DRIVEN;
		// generator_status ONLINE;
		panel_type SINGLE_CRYSTAL_SILICON;
		orientation FIXED_AXIS; 
		rated_power 8640;
	};
}



object triplex_line {
	phases AS;
	from F0_triplex_node_A;
	to H5_meter_billing;
	length 10 ft;
	configuration TLCFG;
}

object triplex_meter {
	name H5_meter_billing;
	phases AS;
	nominal_voltage 120;
	bill_mode UNIFORM;
    bill_day 1;
    monthly_fee 6;
    price ${FIXED_PRICE};
}

object triplex_line {
	phases AS;
	from H5_meter_billing;
	to H5_meter_house;
	length 10 ft;
	configuration TLCFG;
}

object triplex_meter {
	name H5_meter_house;
	groupid F0_meter;
	phases AS;
	nominal_voltage 120;
}

object house {
	name H5;
    groupid VPP_0;
	parent H5_meter_house;
	schedule_skew -627;
	Rroof 20.415;
	Rwall 7.508000000000001;
	Rfloor 10.311;
	Rdoors 3;
	Rwindows 1.341;
	airchange_per_hour 0.9359999999999999;
	hvac_power_factor 0.97;
	cooling_system_type ELECTRIC;
	heating_system_type GAS;
	fan_type ONE_SPEED;
	hvac_breaker_rating 200;
	total_thermal_mass_per_floor_area 4.669;
	motor_efficiency AVERAGE;
	motor_model BASIC;
	cooling_COP 2.895;
	floor_area 3416.634;
	number_of_doors 4;
	air_temperature 70.241;
	mass_temperature 70.241;
    system_mode COOL;
    thermostat_cycle_time 5;
    thermostat_mode OFF;
    cooling_setpoint 20;
	heating_setpoint 20;

    object ZIPload {
  schedule_skew -627;
  heat_fraction 0.788;
  base_power LIGHTS*3.6456;
  power_pf -0.78;
  power_fraction 0.6;
  current_pf 0.42;
  current_fraction 0;
  impedance_pf -0.88;
  impedance_fraction 0.4;
};
object ZIPload {
  schedule_skew -627;
  heat_fraction 0.698;
  base_power CLOTHESWASHER*0.7473;
  power_pf 0.97;
  power_fraction 1;
  current_pf 0.97;
  current_fraction 0;
  impedance_pf 0.97;
  impedance_fraction 0;
};
object ZIPload {
  schedule_skew -627;
  heat_fraction 0.762;
  base_power REFRIGERATOR*1.9843;
  power_pf 0.97;
  power_fraction 1;
  current_pf 0.97;
  current_fraction 0;
  impedance_pf 0.97;
  impedance_fraction 0;
};
object ZIPload {
  schedule_skew -627;
  heat_fraction 0.747;
  base_power DRYER*1.9471;
  power_pf 0.9;
  power_fraction 0.1;
  current_pf 0.9;
  current_fraction 0.1;
  impedance_pf 1;
  impedance_fraction 0.8;
};
object ZIPload {
  schedule_skew -627;
  heat_fraction 0.873;
  base_power FREEZER*1.2327;
  power_pf 0.97;
  power_fraction 1;
  current_pf 0.97;
  current_fraction 0;
  impedance_pf 0.97;
  impedance_fraction 0;
};
object ZIPload {
  schedule_skew -627;
  heat_fraction 0.738;
  base_power DISHWASHER*0.8715;
  power_pf 0.97;
  power_fraction 1;
  current_pf 0.97;
  current_fraction 0;
  impedance_pf 0.97;
  impedance_fraction 0;
};
object ZIPload {
  schedule_skew -627;
  heat_fraction 0.816;
  base_power RANGE*1.4208;
  power_pf 0;
  power_fraction 0;
  current_pf 0;
  current_fraction 0;
  impedance_pf 1;
  impedance_fraction 1;
};
object ZIPload {
  schedule_skew -627;
  heat_fraction 0.72;
  base_power MICROWAVE*1.8149;
  power_pf 0.97;
  power_fraction 1;
  current_pf 0.97;
  current_fraction 0;
  impedance_pf 0.97;
  impedance_fraction 0;
};

}
object triplex_line {
	phases AS;
	from H5_meter_billing;
	to H5_ev_meter;
	length 10 ft;
	configuration TLCFG;
}

object triplex_meter {
	name H5_ev_meter;
	phases AS;
	nominal_voltage 120;
}

object load {
    name H5_ev;
    parent H5_ev_meter;
};
object triplex_line {
	phases AS;
	from H5_meter_billing;
	to H5_solar_meter;
	length 10 ft;
	configuration TLCFG;
}

object triplex_meter {
	name H5_solar_meter;
	phases AS;
	nominal_voltage 120;
	groupid inverter_meter;
}

object inverter {
	name H5_solar_inv;
    parent H5_solar_meter;
	phases AS;
	inverter_type FOUR_QUADRANT;
	power_factor 1;
	// use_multipoint_efficiency TRUE;
	inverter_manufacturer XANTREX;
	maximum_dc_power 3888.0; 
	four_quadrant_control_mode CONSTANT_PQ;
	generator_status ONLINE;
	rated_power 3888.0;	
	inverter_efficiency 0.90;
	Q_Out 0;
    P_Out 0;
	object solar {
		name H5_solar;
		// generator_mode SUPPLY_DRIVEN;
		// generator_status ONLINE;
		panel_type SINGLE_CRYSTAL_SILICON;
		orientation FIXED_AXIS; 
		rated_power 4320;
	};
}



object triplex_line {
	phases AS;
	from F0_triplex_node_A;
	to H6_meter_billing;
	length 10 ft;
	configuration TLCFG;
}

object triplex_meter {
	name H6_meter_billing;
	phases AS;
	nominal_voltage 120;
	bill_mode UNIFORM;
    bill_day 1;
    monthly_fee 6;
    price ${FIXED_PRICE};
}

object triplex_line {
	phases AS;
	from H6_meter_billing;
	to H6_meter_house;
	length 10 ft;
	configuration TLCFG;
}

object triplex_meter {
	name H6_meter_house;
	groupid F0_meter;
	phases AS;
	nominal_voltage 120;
}

object house {
	name H6;
    groupid VPP_0;
	parent H6_meter_house;
	schedule_skew -1174;
	Rroof 31.614;
	Rwall 17.625999999999998;
	Rfloor 11.709;
	Rdoors 5;
	Rwindows 1.621;
	airchange_per_hour 0.985;
	hvac_power_factor 0.97;
	cooling_system_type ELECTRIC;
	heating_system_type GAS;
	fan_type ONE_SPEED;
	hvac_breaker_rating 200;
	total_thermal_mass_per_floor_area 4.379;
	motor_efficiency AVERAGE;
	motor_model BASIC;
	cooling_COP 3.835;
	floor_area 1232.7479999999998;
	number_of_doors 2;
	air_temperature 67.34100000000001;
	mass_temperature 67.34100000000001;
    system_mode COOL;
    thermostat_cycle_time 5;
    thermostat_mode OFF;
    cooling_setpoint 20;
	heating_setpoint 20;

    object ZIPload {
  schedule_skew -1174;
  heat_fraction 0.928;
  base_power LIGHTS*1.3966;
  power_pf -0.78;
  power_fraction 0.6;
  current_pf 0.42;
  current_fraction 0;
  impedance_pf -0.88;
  impedance_fraction 0.4;
};
object ZIPload {
  schedule_skew -1174;
  heat_fraction 0.88;
  base_power CLOTHESWASHER*0.6925;
  power_pf 0.97;
  power_fraction 1;
  current_pf 0.97;
  current_fraction 0;
  impedance_pf 0.97;
  impedance_fraction 0;
};
object ZIPload {
  schedule_skew -1174;
  heat_fraction 0.945;
  base_power REFRIGERATOR*1.0741;
  power_pf 0.97;
  power_fraction 1;
  current_pf 0.97;
  current_fraction 0;
  impedance_pf 0.97;
  impedance_fraction 0;
};
object ZIPload {
  schedule_skew -1174;
  heat_fraction 0.809;
  base_power DRYER*1.0776;
  power_pf 0.9;
  power_fraction 0.1;
  current_pf 0.9;
  current_fraction 0.1;
  impedance_pf 1;
  impedance_fraction 0.8;
};
object ZIPload {
  schedule_skew -1174;
  heat_fraction 0.943;
  base_power DISHWASHER*0.4371;
  power_pf 0.97;
  power_fraction 1;
  current_pf 0.97;
  current_fraction 0;
  impedance_pf 0.97;
  impedance_fraction 0;
};
object ZIPload {
  schedule_skew -1174;
  heat_fraction 0.645;
  base_power RANGE*1.0368;
  power_pf 0;
  power_fraction 0;
  current_pf 0;
  current_fraction 0;
  impedance_pf 1;
  impedance_fraction 1;
};
object ZIPload {
  schedule_skew -1174;
  heat_fraction 0.85;
  base_power MICROWAVE*0.7235;
  power_pf 0.97;
  power_fraction 1;
  current_pf 0.97;
  current_fraction 0;
  impedance_pf 0.97;
  impedance_fraction 0;
};

}
object triplex_line {
	phases AS;
	from H6_meter_billing;
	to H6_ev_meter;
	length 10 ft;
	configuration TLCFG;
}

object triplex_meter {
	name H6_ev_meter;
	phases AS;
	nominal_voltage 120;
}

object load {
    name H6_ev;
    parent H6_ev_meter;
};
object triplex_line {
	phases AS;
	from H6_meter_billing;
	to H6_solar_meter;
	length 10 ft;
	configuration TLCFG;
}

object triplex_meter {
	name H6_solar_meter;
	phases AS;
	nominal_voltage 120;
	groupid inverter_meter;
}

object inverter {
	name H6_solar_inv;
    parent H6_solar_meter;
	phases AS;
	inverter_type FOUR_QUADRANT;
	power_factor 1;
	// use_multipoint_efficiency TRUE;
	inverter_manufacturer XANTREX;
	maximum_dc_power 7344.0; 
	four_quadrant_control_mode CONSTANT_PQ;
	generator_status ONLINE;
	rated_power 7344.0;	
	inverter_efficiency 0.90;
	Q_Out 0;
    P_Out 0;
	object solar {
		name H6_solar;
		// generator_mode SUPPLY_DRIVEN;
		// generator_status ONLINE;
		panel_type SINGLE_CRYSTAL_SILICON;
		orientation FIXED_AXIS; 
		rated_power 8160;
	};
}



object triplex_line {
	phases AS;
	from F0_triplex_node_A;
	to H7_meter_billing;
	length 10 ft;
	configuration TLCFG;
}

object triplex_meter {
	name H7_meter_billing;
	phases AS;
	nominal_voltage 120;
	bill_mode UNIFORM;
    bill_day 1;
    monthly_fee 6;
    price ${FIXED_PRICE};
}

object triplex_line {
	phases AS;
	from H7_meter_billing;
	to H7_meter_house;
	length 10 ft;
	configuration TLCFG;
}

object triplex_meter {
	name H7_meter_house;
	groupid F0_meter;
	phases AS;
	nominal_voltage 120;
}

object house {
	name H7;
    groupid VPP_0;
	parent H7_meter_house;
	schedule_skew 2941;
	Rroof 30.12;
	Rwall 17.744999999999997;
	Rfloor 14.930000000000001;
	Rdoors 5;
	Rwindows 2.1910000000000003;
	airchange_per_hour 1.167;
	hvac_power_factor 0.97;
	cooling_system_type ELECTRIC;
	heating_system_type GAS;
	fan_type ONE_SPEED;
	hvac_breaker_rating 200;
	total_thermal_mass_per_floor_area 3.406;
	motor_efficiency AVERAGE;
	motor_model BASIC;
	cooling_COP 4.111000000000001;
	floor_area 1445.2240000000002;
	number_of_doors 2;
	air_temperature 69.036;
	mass_temperature 69.036;
    system_mode COOL;
    thermostat_cycle_time 5;
    thermostat_mode OFF;
    cooling_setpoint 20;
	heating_setpoint 20;

    object ZIPload {
  schedule_skew 2941;
  heat_fraction 0.73;
  base_power LIGHTS*1.8146;
  power_pf -0.78;
  power_fraction 0.6;
  current_pf 0.42;
  current_fraction 0;
  impedance_pf -0.88;
  impedance_fraction 0.4;
};
object ZIPload {
  schedule_skew 2941;
  heat_fraction 0.66;
  base_power CLOTHESWASHER*0.5212;
  power_pf 0.97;
  power_fraction 1;
  current_pf 0.97;
  current_fraction 0;
  impedance_pf 0.97;
  impedance_fraction 0;
};
object ZIPload {
  schedule_skew 2941;
  heat_fraction 0.723;
  base_power REFRIGERATOR*1.1318;
  power_pf 0.97;
  power_fraction 1;
  current_pf 0.97;
  current_fraction 0;
  impedance_pf 0.97;
  impedance_fraction 0;
};
object ZIPload {
  schedule_skew 2941;
  heat_fraction 0.851;
  base_power DRYER*1.2189;
  power_pf 0.9;
  power_fraction 0.1;
  current_pf 0.9;
  current_fraction 0.1;
  impedance_pf 1;
  impedance_fraction 0.8;
};
object ZIPload {
  schedule_skew 2941;
  heat_fraction 0.776;
  base_power DISHWASHER*0.7379;
  power_pf 0.97;
  power_fraction 1;
  current_pf 0.97;
  current_fraction 0;
  impedance_pf 0.97;
  impedance_fraction 0;
};
object ZIPload {
  schedule_skew 2941;
  heat_fraction 0.929;
  base_power RANGE*0.5542;
  power_pf 0;
  power_fraction 0;
  current_pf 0;
  current_fraction 0;
  impedance_pf 1;
  impedance_fraction 1;
};
object ZIPload {
  schedule_skew 2941;
  heat_fraction 0.873;
  base_power MICROWAVE*0.5019;
  power_pf 0.97;
  power_fraction 1;
  current_pf 0.97;
  current_fraction 0;
  impedance_pf 0.97;
  impedance_fraction 0;
};

}
object triplex_line {
	phases AS;
	from H7_meter_billing;
	to H7_ev_meter;
	length 10 ft;
	configuration TLCFG;
}

object triplex_meter {
	name H7_ev_meter;
	phases AS;
	nominal_voltage 120;
}

object load {
    name H7_ev;
    parent H7_ev_meter;
};
object triplex_line {
	phases AS;
	from H7_meter_billing;
	to H7_solar_meter;
	length 10 ft;
	configuration TLCFG;
}

object triplex_meter {
	name H7_solar_meter;
	phases AS;
	nominal_voltage 120;
	groupid inverter_meter;
}

object inverter {
	name H7_solar_inv;
    parent H7_solar_meter;
	phases AS;
	inverter_type FOUR_QUADRANT;
	power_factor 1;
	// use_multipoint_efficiency TRUE;
	inverter_manufacturer XANTREX;
	maximum_dc_power 6480.0; 
	four_quadrant_control_mode CONSTANT_PQ;
	generator_status ONLINE;
	rated_power 6480.0;	
	inverter_efficiency 0.90;
	Q_Out 0;
    P_Out 0;
	object solar {
		name H7_solar;
		// generator_mode SUPPLY_DRIVEN;
		// generator_status ONLINE;
		panel_type SINGLE_CRYSTAL_SILICON;
		orientation FIXED_AXIS; 
		rated_power 7200;
	};
}



object triplex_line {
	phases AS;
	from F0_triplex_node_A;
	to H8_meter_billing;
	length 10 ft;
	configuration TLCFG;
}

object triplex_meter {
	name H8_meter_billing;
	phases AS;
	nominal_voltage 120;
	bill_mode UNIFORM;
    bill_day 1;
    monthly_fee 6;
    price ${FIXED_PRICE};
}

object triplex_line {
	phases AS;
	from H8_meter_billing;
	to H8_meter_house;
	length 10 ft;
	configuration TLCFG;
}

object triplex_meter {
	name H8_meter_house;
	groupid F0_meter;
	phases AS;
	nominal_voltage 120;
}

object house {
	name H8;
    groupid VPP_0;
	parent H8_meter_house;
	schedule_skew 354;
	Rroof 30.109999999999996;
	Rwall 19.69;
	Rfloor 13.559;
	Rdoors 5;
	Rwindows 1.78;
	airchange_per_hour 0.892;
	hvac_power_factor 0.97;
	cooling_system_type ELECTRIC;
	heating_system_type GAS;
	fan_type ONE_SPEED;
	hvac_breaker_rating 200;
	total_thermal_mass_per_floor_area 3.269;
	motor_efficiency AVERAGE;
	motor_model BASIC;
	cooling_COP 3.974;
	floor_area 877.329;
	number_of_doors 1;
	air_temperature 70.425;
	mass_temperature 70.425;
    system_mode COOL;
    thermostat_cycle_time 5;
    thermostat_mode OFF;
    cooling_setpoint 20;
	heating_setpoint 20;

    object ZIPload {
  schedule_skew 354;
  heat_fraction 0.71;
  base_power LIGHTS*1.3151;
  power_pf -0.78;
  power_fraction 0.6;
  current_pf 0.42;
  current_fraction 0;
  impedance_pf -0.88;
  impedance_fraction 0.4;
};
object ZIPload {
  schedule_skew 354;
  heat_fraction 0.67;
  base_power CLOTHESWASHER*0.8809;
  power_pf 0.97;
  power_fraction 1;
  current_pf 0.97;
  current_fraction 0;
  impedance_pf 0.97;
  impedance_fraction 0;
};
object ZIPload {
  schedule_skew 354;
  heat_fraction 0.656;
  base_power REFRIGERATOR*0.7265;
  power_pf 0.97;
  power_fraction 1;
  current_pf 0.97;
  current_fraction 0;
  impedance_pf 0.97;
  impedance_fraction 0;
};
object ZIPload {
  schedule_skew 354;
  heat_fraction 0.912;
  base_power DRYER*0.4669;
  power_pf 0.9;
  power_fraction 0.1;
  current_pf 0.9;
  current_fraction 0.1;
  impedance_pf 1;
  impedance_fraction 0.8;
};
object ZIPload {
  schedule_skew 354;
  heat_fraction 0.829;
  base_power RANGE*0.4825;
  power_pf 0;
  power_fraction 0;
  current_pf 0;
  current_fraction 0;
  impedance_pf 1;
  impedance_fraction 1;
};
object ZIPload {
  schedule_skew 354;
  heat_fraction 0.865;
  base_power MICROWAVE*0.3953;
  power_pf 0.97;
  power_fraction 1;
  current_pf 0.97;
  current_fraction 0;
  impedance_pf 0.97;
  impedance_fraction 0;
};

}
object triplex_line {
	phases AS;
	from H8_meter_billing;
	to H8_ev_meter;
	length 10 ft;
	configuration TLCFG;
}

object triplex_meter {
	name H8_ev_meter;
	phases AS;
	nominal_voltage 120;
}

object load {
    name H8_ev;
    parent H8_ev_meter;
};
object triplex_line {
	phases AS;
	from H8_meter_billing;
	to H8_solar_meter;
	length 10 ft;
	configuration TLCFG;
}

object triplex_meter {
	name H8_solar_meter;
	phases AS;
	nominal_voltage 120;
	groupid inverter_meter;
}

object inverter {
	name H8_solar_inv;
    parent H8_solar_meter;
	phases AS;
	inverter_type FOUR_QUADRANT;
	power_factor 1;
	// use_multipoint_efficiency TRUE;
	inverter_manufacturer XANTREX;
	maximum_dc_power 6480.0; 
	four_quadrant_control_mode CONSTANT_PQ;
	generator_status ONLINE;
	rated_power 6480.0;	
	inverter_efficiency 0.90;
	Q_Out 0;
    P_Out 0;
	object solar {
		name H8_solar;
		// generator_mode SUPPLY_DRIVEN;
		// generator_status ONLINE;
		panel_type SINGLE_CRYSTAL_SILICON;
		orientation FIXED_AXIS; 
		rated_power 7200;
	};
}



object triplex_line {
	phases AS;
	from F0_triplex_node_A;
	to H9_meter_billing;
	length 10 ft;
	configuration TLCFG;
}

object triplex_meter {
	name H9_meter_billing;
	phases AS;
	nominal_voltage 120;
	bill_mode UNIFORM;
    bill_day 1;
    monthly_fee 6;
    price ${FIXED_PRICE};
}

object triplex_line {
	phases AS;
	from H9_meter_billing;
	to H9_meter_house;
	length 10 ft;
	configuration TLCFG;
}

object triplex_meter {
	name H9_meter_house;
	groupid F0_meter;
	phases AS;
	nominal_voltage 120;
}

object house {
	name H9;
    groupid VPP_0;
	parent H9_meter_house;
	schedule_skew 810;
	Rroof 19.906;
	Rwall 9.341;
	Rfloor 9.861999999999998;
	Rdoors 3;
	Rwindows 0.954;
	airchange_per_hour 1.079;
	hvac_power_factor 0.97;
	cooling_system_type ELECTRIC;
	heating_system_type GAS;
	fan_type ONE_SPEED;
	hvac_breaker_rating 200;
	total_thermal_mass_per_floor_area 3.719;
	motor_efficiency AVERAGE;
	motor_model BASIC;
	cooling_COP 3.6390000000000002;
	floor_area 3870.3179999999998;
	number_of_doors 4;
	air_temperature 69.07600000000001;
	mass_temperature 69.07600000000001;
    system_mode COOL;
    thermostat_cycle_time 5;
    thermostat_mode OFF;
    cooling_setpoint 20;
	heating_setpoint 20;

    object ZIPload {
  schedule_skew 810;
  heat_fraction 0.644;
  base_power LIGHTS*1.4117;
  power_pf -0.78;
  power_fraction 0.6;
  current_pf 0.42;
  current_fraction 0;
  impedance_pf -0.88;
  impedance_fraction 0.4;
};
object ZIPload {
  schedule_skew 810;
  heat_fraction 0.882;
  base_power CLOTHESWASHER*1.8224;
  power_pf 0.97;
  power_fraction 1;
  current_pf 0.97;
  current_fraction 0;
  impedance_pf 0.97;
  impedance_fraction 0;
};
object ZIPload {
  schedule_skew 810;
  heat_fraction 0.708;
  base_power REFRIGERATOR*1.2328;
  power_pf 0.97;
  power_fraction 1;
  current_pf 0.97;
  current_fraction 0;
  impedance_pf 0.97;
  impedance_fraction 0;
};
object ZIPload {
  schedule_skew 810;
  heat_fraction 0.817;
  base_power DRYER*1.0649;
  power_pf 0.9;
  power_fraction 0.1;
  current_pf 0.9;
  current_fraction 0.1;
  impedance_pf 1;
  impedance_fraction 0.8;
};
object ZIPload {
  schedule_skew 810;
  heat_fraction 0.661;
  base_power FREEZER*1.4684;
  power_pf 0.97;
  power_fraction 1;
  current_pf 0.97;
  current_fraction 0;
  impedance_pf 0.97;
  impedance_fraction 0;
};
object ZIPload {
  schedule_skew 810;
  heat_fraction 0.932;
  base_power DISHWASHER*1.7185;
  power_pf 0.97;
  power_fraction 1;
  current_pf 0.97;
  current_fraction 0;
  impedance_pf 0.97;
  impedance_fraction 0;
};
object ZIPload {
  schedule_skew 810;
  heat_fraction 0.755;
  base_power RANGE*1.5519;
  power_pf 0;
  power_fraction 0;
  current_pf 0;
  current_fraction 0;
  impedance_pf 1;
  impedance_fraction 1;
};
object ZIPload {
  schedule_skew 810;
  heat_fraction 0.725;
  base_power MICROWAVE*1.0240;
  power_pf 0.97;
  power_fraction 1;
  current_pf 0.97;
  current_fraction 0;
  impedance_pf 0.97;
  impedance_fraction 0;
};

}
object triplex_line {
	phases AS;
	from H9_meter_billing;
	to H9_ev_meter;
	length 10 ft;
	configuration TLCFG;
}

object triplex_meter {
	name H9_ev_meter;
	phases AS;
	nominal_voltage 120;
}

object load {
    name H9_ev;
    parent H9_ev_meter;
};
object triplex_line {
	phases AS;
	from H9_meter_billing;
	to H9_solar_meter;
	length 10 ft;
	configuration TLCFG;
}

object triplex_meter {
	name H9_solar_meter;
	phases AS;
	nominal_voltage 120;
	groupid inverter_meter;
}

object inverter {
	name H9_solar_inv;
    parent H9_solar_meter;
	phases AS;
	inverter_type FOUR_QUADRANT;
	power_factor 1;
	// use_multipoint_efficiency TRUE;
	inverter_manufacturer XANTREX;
	maximum_dc_power 7344.0; 
	four_quadrant_control_mode CONSTANT_PQ;
	generator_status ONLINE;
	rated_power 7344.0;	
	inverter_efficiency 0.90;
	Q_Out 0;
    P_Out 0;
	object solar {
		name H9_solar;
		// generator_mode SUPPLY_DRIVEN;
		// generator_status ONLINE;
		panel_type SINGLE_CRYSTAL_SILICON;
		orientation FIXED_AXIS; 
		rated_power 8160;
	};
}



object triplex_line {
	phases AS;
	from F0_triplex_node_A;
	to H10_meter_billing;
	length 10 ft;
	configuration TLCFG;
}

object triplex_meter {
	name H10_meter_billing;
	phases AS;
	nominal_voltage 120;
	bill_mode UNIFORM;
    bill_day 1;
    monthly_fee 6;
    price ${FIXED_PRICE};
}

object triplex_line {
	phases AS;
	from H10_meter_billing;
	to H10_meter_house;
	length 10 ft;
	configuration TLCFG;
}

object triplex_meter {
	name H10_meter_house;
	groupid F0_meter;
	phases AS;
	nominal_voltage 120;
}

object house {
	name H10;
    groupid VPP_0;
	parent H10_meter_house;
	schedule_skew 2930;
	Rroof 29.54;
	Rwall 17.695;
	Rfloor 14.39;
	Rdoors 5;
	Rwindows 2.221;
	airchange_per_hour 1.197;
	hvac_power_factor 0.97;
	cooling_system_type ELECTRIC;
	heating_system_type GAS;
	fan_type ONE_SPEED;
	hvac_breaker_rating 200;
	total_thermal_mass_per_floor_area 3.1660000000000004;
	motor_efficiency AVERAGE;
	motor_model BASIC;
	cooling_COP 4.151;
	floor_area 1429.504;
	number_of_doors 2;
	air_temperature 68.646;
	mass_temperature 68.646;
    system_mode COOL;
    thermostat_cycle_time 5;
    thermostat_mode OFF;
    cooling_setpoint 20;
	heating_setpoint 20;

    object ZIPload {
  schedule_skew 2930;
  heat_fraction 0.73;
  base_power LIGHTS*1.8146;
  power_pf -0.78;
  power_fraction 0.6;
  current_pf 0.42;
  current_fraction 0;
  impedance_pf -0.88;
  impedance_fraction 0.4;
};
object ZIPload {
  schedule_skew 2930;
  heat_fraction 0.66;
  base_power CLOTHESWASHER*0.5212;
  power_pf 0.97;
  power_fraction 1;
  current_pf 0.97;
  current_fraction 0;
  impedance_pf 0.97;
  impedance_fraction 0;
};
object ZIPload {
  schedule_skew 2930;
  heat_fraction 0.723;
  base_power REFRIGERATOR*1.1318;
  power_pf 0.97;
  power_fraction 1;
  current_pf 0.97;
  current_fraction 0;
  impedance_pf 0.97;
  impedance_fraction 0;
};
object ZIPload {
  schedule_skew 2930;
  heat_fraction 0.851;
  base_power DRYER*1.2189;
  power_pf 0.9;
  power_fraction 0.1;
  current_pf 0.9;
  current_fraction 0.1;
  impedance_pf 1;
  impedance_fraction 0.8;
};
object ZIPload {
  schedule_skew 2930;
  heat_fraction 0.776;
  base_power DISHWASHER*0.7379;
  power_pf 0.97;
  power_fraction 1;
  current_pf 0.97;
  current_fraction 0;
  impedance_pf 0.97;
  impedance_fraction 0;
};
object ZIPload {
  schedule_skew 2930;
  heat_fraction 0.929;
  base_power RANGE*0.5542;
  power_pf 0;
  power_fraction 0;
  current_pf 0;
  current_fraction 0;
  impedance_pf 1;
  impedance_fraction 1;
};
object ZIPload {
  schedule_skew 2930;
  heat_fraction 0.873;
  base_power MICROWAVE*0.5019;
  power_pf 0.97;
  power_fraction 1;
  current_pf 0.97;
  current_fraction 0;
  impedance_pf 0.97;
  impedance_fraction 0;
};

}
object triplex_line {
	phases AS;
	from H10_meter_billing;
	to H10_ev_meter;
	length 10 ft;
	configuration TLCFG;
}

object triplex_meter {
	name H10_ev_meter;
	phases AS;
	nominal_voltage 120;
}

object load {
    name H10_ev;
    parent H10_ev_meter;
};
object triplex_line {
	phases AS;
	from H10_meter_billing;
	to H10_solar_meter;
	length 10 ft;
	configuration TLCFG;
}

object triplex_meter {
	name H10_solar_meter;
	phases AS;
	nominal_voltage 120;
	groupid inverter_meter;
}

object inverter {
	name H10_solar_inv;
    parent H10_solar_meter;
	phases AS;
	inverter_type FOUR_QUADRANT;
	power_factor 1;
	// use_multipoint_efficiency TRUE;
	inverter_manufacturer XANTREX;
	maximum_dc_power 3888.0; 
	four_quadrant_control_mode CONSTANT_PQ;
	generator_status ONLINE;
	rated_power 3888.0;	
	inverter_efficiency 0.90;
	Q_Out 0;
    P_Out 0;
	object solar {
		name H10_solar;
		// generator_mode SUPPLY_DRIVEN;
		// generator_status ONLINE;
		panel_type SINGLE_CRYSTAL_SILICON;
		orientation FIXED_AXIS; 
		rated_power 4320;
	};
}



object triplex_line {
	phases AS;
	from F0_triplex_node_A;
	to H11_meter_billing;
	length 10 ft;
	configuration TLCFG;
}

object triplex_meter {
	name H11_meter_billing;
	phases AS;
	nominal_voltage 120;
	bill_mode UNIFORM;
    bill_day 1;
    monthly_fee 6;
    price ${FIXED_PRICE};
}

object triplex_line {
	phases AS;
	from H11_meter_billing;
	to H11_meter_house;
	length 10 ft;
	configuration TLCFG;
}

object triplex_meter {
	name H11_meter_house;
	groupid F0_meter;
	phases AS;
	nominal_voltage 120;
}

object house {
	name H11;
    groupid VPP_0;
	parent H11_meter_house;
	schedule_skew -629;
	Rroof 20.945;
	Rwall 8.498000000000001;
	Rfloor 10.401000000000002;
	Rdoors 3;
	Rwindows 1.281;
	airchange_per_hour 0.8859999999999999;
	hvac_power_factor 0.97;
	cooling_system_type ELECTRIC;
	heating_system_type GAS;
	fan_type ONE_SPEED;
	hvac_breaker_rating 200;
	total_thermal_mass_per_floor_area 4.649;
	motor_efficiency AVERAGE;
	motor_model BASIC;
	cooling_COP 2.755;
	floor_area 3388.134;
	number_of_doors 4;
	air_temperature 70.241;
	mass_temperature 70.241;
    system_mode COOL;
    thermostat_cycle_time 5;
    thermostat_mode OFF;
    cooling_setpoint 20;
	heating_setpoint 20;

    object ZIPload {
  schedule_skew -629;
  heat_fraction 0.788;
  base_power LIGHTS*3.6456;
  power_pf -0.78;
  power_fraction 0.6;
  current_pf 0.42;
  current_fraction 0;
  impedance_pf -0.88;
  impedance_fraction 0.4;
};
object ZIPload {
  schedule_skew -629;
  heat_fraction 0.698;
  base_power CLOTHESWASHER*0.7473;
  power_pf 0.97;
  power_fraction 1;
  current_pf 0.97;
  current_fraction 0;
  impedance_pf 0.97;
  impedance_fraction 0;
};
object ZIPload {
  schedule_skew -629;
  heat_fraction 0.762;
  base_power REFRIGERATOR*1.9843;
  power_pf 0.97;
  power_fraction 1;
  current_pf 0.97;
  current_fraction 0;
  impedance_pf 0.97;
  impedance_fraction 0;
};
object ZIPload {
  schedule_skew -629;
  heat_fraction 0.747;
  base_power DRYER*1.9471;
  power_pf 0.9;
  power_fraction 0.1;
  current_pf 0.9;
  current_fraction 0.1;
  impedance_pf 1;
  impedance_fraction 0.8;
};
object ZIPload {
  schedule_skew -629;
  heat_fraction 0.873;
  base_power FREEZER*1.2327;
  power_pf 0.97;
  power_fraction 1;
  current_pf 0.97;
  current_fraction 0;
  impedance_pf 0.97;
  impedance_fraction 0;
};
object ZIPload {
  schedule_skew -629;
  heat_fraction 0.738;
  base_power DISHWASHER*0.8715;
  power_pf 0.97;
  power_fraction 1;
  current_pf 0.97;
  current_fraction 0;
  impedance_pf 0.97;
  impedance_fraction 0;
};
object ZIPload {
  schedule_skew -629;
  heat_fraction 0.816;
  base_power RANGE*1.4208;
  power_pf 0;
  power_fraction 0;
  current_pf 0;
  current_fraction 0;
  impedance_pf 1;
  impedance_fraction 1;
};
object ZIPload {
  schedule_skew -629;
  heat_fraction 0.72;
  base_power MICROWAVE*1.8149;
  power_pf 0.97;
  power_fraction 1;
  current_pf 0.97;
  current_fraction 0;
  impedance_pf 0.97;
  impedance_fraction 0;
};

}
object triplex_line {
	phases AS;
	from H11_meter_billing;
	to H11_ev_meter;
	length 10 ft;
	configuration TLCFG;
}

object triplex_meter {
	name H11_ev_meter;
	phases AS;
	nominal_voltage 120;
}

object load {
    name H11_ev;
    parent H11_ev_meter;
};
object triplex_line {
	phases AS;
	from H11_meter_billing;
	to H11_solar_meter;
	length 10 ft;
	configuration TLCFG;
}

object triplex_meter {
	name H11_solar_meter;
	phases AS;
	nominal_voltage 120;
	groupid inverter_meter;
}

object inverter {
	name H11_solar_inv;
    parent H11_solar_meter;
	phases AS;
	inverter_type FOUR_QUADRANT;
	power_factor 1;
	// use_multipoint_efficiency TRUE;
	inverter_manufacturer XANTREX;
	maximum_dc_power 6048.0; 
	four_quadrant_control_mode CONSTANT_PQ;
	generator_status ONLINE;
	rated_power 6048.0;	
	inverter_efficiency 0.90;
	Q_Out 0;
    P_Out 0;
	object solar {
		name H11_solar;
		// generator_mode SUPPLY_DRIVEN;
		// generator_status ONLINE;
		panel_type SINGLE_CRYSTAL_SILICON;
		orientation FIXED_AXIS; 
		rated_power 6720;
	};
}



object triplex_line {
	phases AS;
	from F0_triplex_node_A;
	to H12_meter_billing;
	length 10 ft;
	configuration TLCFG;
}

object triplex_meter {
	name H12_meter_billing;
	phases AS;
	nominal_voltage 120;
	bill_mode UNIFORM;
    bill_day 1;
    monthly_fee 6;
    price ${FIXED_PRICE};
}

object triplex_line {
	phases AS;
	from H12_meter_billing;
	to H12_meter_house;
	length 10 ft;
	configuration TLCFG;
}

object triplex_meter {
	name H12_meter_house;
	groupid F0_meter;
	phases AS;
	nominal_voltage 120;
}

object house {
	name H12;
    groupid VPP_0;
	parent H12_meter_house;
	schedule_skew 550;
	Rroof 21.342000000000002;
	Rwall 11.914000000000001;
	Rfloor 11.27;
	Rdoors 3;
	Rwindows 1.061;
	airchange_per_hour 1.185;
	hvac_power_factor 0.97;
	cooling_system_type ELECTRIC;
	heating_system_type GAS;
	fan_type ONE_SPEED;
	hvac_breaker_rating 200;
	total_thermal_mass_per_floor_area 5.019;
	motor_efficiency AVERAGE;
	motor_model BASIC;
	cooling_COP 3.5429999999999997;
	floor_area 1120.0780000000002;
	number_of_doors 2;
	air_temperature 66.321;
	mass_temperature 66.321;
    system_mode COOL;
    thermostat_cycle_time 5;
    thermostat_mode OFF;
    cooling_setpoint 20;
	heating_setpoint 20;

    object ZIPload {
  schedule_skew 550;
  heat_fraction 0.847;
  base_power LIGHTS*1.0261;
  power_pf 0;
  power_fraction 0;
  current_pf 0;
  current_fraction 0;
  impedance_pf 1;
  impedance_fraction 1;
};
object ZIPload {
  schedule_skew 550;
  heat_fraction 0.677;
  base_power CLOTHESWASHER*1.0560;
  power_pf 0.97;
  power_fraction 1;
  current_pf 0.97;
  current_fraction 0;
  impedance_pf 0.97;
  impedance_fraction 0;
};
object ZIPload {
  schedule_skew 550;
  heat_fraction 0.925;
  base_power REFRIGERATOR*0.4246;
  power_pf 0.97;
  power_fraction 1;
  current_pf 0.97;
  current_fraction 0;
  impedance_pf 0.97;
  impedance_fraction 0;
};
object ZIPload {
  schedule_skew 550;
  heat_fraction 0.704;
  base_power DRYER*0.6207;
  power_pf 0.9;
  power_fraction 0.1;
  current_pf 0.9;
  current_fraction 0.1;
  impedance_pf 1;
  impedance_fraction 0.8;
};
object ZIPload {
  schedule_skew 550;
  heat_fraction 0.794;
  base_power RANGE*0.7452;
  power_pf 0;
  power_fraction 0;
  current_pf 0;
  current_fraction 0;
  impedance_pf 1;
  impedance_fraction 1;
};
object ZIPload {
  schedule_skew 550;
  heat_fraction 0.768;
  base_power MICROWAVE*0.7532;
  power_pf 0.97;
  power_fraction 1;
  current_pf 0.97;
  current_fraction 0;
  impedance_pf 0.97;
  impedance_fraction 0;
};

}
object triplex_line {
	phases AS;
	from H12_meter_billing;
	to H12_ev_meter;
	length 10 ft;
	configuration TLCFG;
}

object triplex_meter {
	name H12_ev_meter;
	phases AS;
	nominal_voltage 120;
}

object load {
    name H12_ev;
    parent H12_ev_meter;
};
object triplex_line {
	phases AS;
	from H12_meter_billing;
	to H12_solar_meter;
	length 10 ft;
	configuration TLCFG;
}

object triplex_meter {
	name H12_solar_meter;
	phases AS;
	nominal_voltage 120;
	groupid inverter_meter;
}

object inverter {
	name H12_solar_inv;
    parent H12_solar_meter;
	phases AS;
	inverter_type FOUR_QUADRANT;
	power_factor 1;
	// use_multipoint_efficiency TRUE;
	inverter_manufacturer XANTREX;
	maximum_dc_power 3456.0; 
	four_quadrant_control_mode CONSTANT_PQ;
	generator_status ONLINE;
	rated_power 3456.0;	
	inverter_efficiency 0.90;
	Q_Out 0;
    P_Out 0;
	object solar {
		name H12_solar;
		// generator_mode SUPPLY_DRIVEN;
		// generator_status ONLINE;
		panel_type SINGLE_CRYSTAL_SILICON;
		orientation FIXED_AXIS; 
		rated_power 3840;
	};
}



object triplex_line {
	phases AS;
	from F0_triplex_node_A;
	to H13_meter_billing;
	length 10 ft;
	configuration TLCFG;
}

object triplex_meter {
	name H13_meter_billing;
	phases AS;
	nominal_voltage 120;
	bill_mode UNIFORM;
    bill_day 1;
    monthly_fee 6;
    price ${FIXED_PRICE};
}

object triplex_line {
	phases AS;
	from H13_meter_billing;
	to H13_meter_house;
	length 10 ft;
	configuration TLCFG;
}

object triplex_meter {
	name H13_meter_house;
	groupid F0_meter;
	phases AS;
	nominal_voltage 120;
}

object house {
	name H13;
    groupid VPP_0;
	parent H13_meter_house;
	schedule_skew -891;
	Rroof 27.211000000000002;
	Rwall 21.674000000000003;
	Rfloor 13.364999999999998;
	Rdoors 5;
	Rwindows 1.25;
	airchange_per_hour 1.2020000000000002;
	hvac_power_factor 0.97;
	cooling_system_type ELECTRIC;
	heating_system_type GAS;
	fan_type ONE_SPEED;
	hvac_breaker_rating 200;
	total_thermal_mass_per_floor_area 4.305;
	motor_efficiency AVERAGE;
	motor_model BASIC;
	cooling_COP 3.9469999999999996;
	floor_area 1345.704;
	number_of_doors 2;
	air_temperature 71.024;
	mass_temperature 71.024;
    system_mode COOL;
    thermostat_cycle_time 5;
    thermostat_mode OFF;
    cooling_setpoint 20;
	heating_setpoint 20;

    object ZIPload {
  schedule_skew -891;
  heat_fraction 0.851;
  base_power LIGHTS*0.9811;
  power_pf 0;
  power_fraction 0;
  current_pf 0;
  current_fraction 0;
  impedance_pf 1;
  impedance_fraction 1;
};
object ZIPload {
  schedule_skew -891;
  heat_fraction 0.83;
  base_power CLOTHESWASHER*0.5962;
  power_pf 0.97;
  power_fraction 1;
  current_pf 0.97;
  current_fraction 0;
  impedance_pf 0.97;
  impedance_fraction 0;
};
object ZIPload {
  schedule_skew -891;
  heat_fraction 0.671;
  base_power REFRIGERATOR*1.1742;
  power_pf 0.97;
  power_fraction 1;
  current_pf 0.97;
  current_fraction 0;
  impedance_pf 0.97;
  impedance_fraction 0;
};
object ZIPload {
  schedule_skew -891;
  heat_fraction 0.924;
  base_power DRYER*0.6654;
  power_pf 0.9;
  power_fraction 0.1;
  current_pf 0.9;
  current_fraction 0.1;
  impedance_pf 1;
  impedance_fraction 0.8;
};
object ZIPload {
  schedule_skew -891;
  heat_fraction 0.923;
  base_power RANGE*0.4997;
  power_pf 0;
  power_fraction 0;
  current_pf 0;
  current_fraction 0;
  impedance_pf 1;
  impedance_fraction 1;
};
object ZIPload {
  schedule_skew -891;
  heat_fraction 0.693;
  base_power MICROWAVE*0.5191;
  power_pf 0.97;
  power_fraction 1;
  current_pf 0.97;
  current_fraction 0;
  impedance_pf 0.97;
  impedance_fraction 0;
};

}
object triplex_line {
	phases AS;
	from H13_meter_billing;
	to H13_ev_meter;
	length 10 ft;
	configuration TLCFG;
}

object triplex_meter {
	name H13_ev_meter;
	phases AS;
	nominal_voltage 120;
}

object load {
    name H13_ev;
    parent H13_ev_meter;
};
object triplex_line {
	phases AS;
	from H13_meter_billing;
	to H13_solar_meter;
	length 10 ft;
	configuration TLCFG;
}

object triplex_meter {
	name H13_solar_meter;
	phases AS;
	nominal_voltage 120;
	groupid inverter_meter;
}

object inverter {
	name H13_solar_inv;
    parent H13_solar_meter;
	phases AS;
	inverter_type FOUR_QUADRANT;
	power_factor 1;
	// use_multipoint_efficiency TRUE;
	inverter_manufacturer XANTREX;
	maximum_dc_power 4752.0; 
	four_quadrant_control_mode CONSTANT_PQ;
	generator_status ONLINE;
	rated_power 4752.0;	
	inverter_efficiency 0.90;
	Q_Out 0;
    P_Out 0;
	object solar {
		name H13_solar;
		// generator_mode SUPPLY_DRIVEN;
		// generator_status ONLINE;
		panel_type SINGLE_CRYSTAL_SILICON;
		orientation FIXED_AXIS; 
		rated_power 5280;
	};
}



object triplex_line {
	phases AS;
	from F0_triplex_node_A;
	to H14_meter_billing;
	length 10 ft;
	configuration TLCFG;
}

object triplex_meter {
	name H14_meter_billing;
	phases AS;
	nominal_voltage 120;
	bill_mode UNIFORM;
    bill_day 1;
    monthly_fee 6;
    price ${FIXED_PRICE};
}

object triplex_line {
	phases AS;
	from H14_meter_billing;
	to H14_meter_house;
	length 10 ft;
	configuration TLCFG;
}

object triplex_meter {
	name H14_meter_house;
	groupid F0_meter;
	phases AS;
	nominal_voltage 120;
}

object house {
	name H14;
    groupid VPP_0;
	parent H14_meter_house;
	schedule_skew -886;
	Rroof 27.221;
	Rwall 22.814;
	Rfloor 13.975;
	Rdoors 5;
	Rwindows 1.34;
	airchange_per_hour 1.122;
	hvac_power_factor 0.97;
	cooling_system_type ELECTRIC;
	heating_system_type GAS;
	fan_type ONE_SPEED;
	hvac_breaker_rating 200;
	total_thermal_mass_per_floor_area 4.285;
	motor_efficiency AVERAGE;
	motor_model BASIC;
	cooling_COP 3.8669999999999995;
	floor_area 1367.184;
	number_of_doors 2;
	air_temperature 70.024;
	mass_temperature 70.024;
    system_mode COOL;
    thermostat_cycle_time 5;
    thermostat_mode OFF;
    cooling_setpoint 20;
	heating_setpoint 20;

    object ZIPload {
  schedule_skew -886;
  heat_fraction 0.851;
  base_power LIGHTS*0.9811;
  power_pf 0;
  power_fraction 0;
  current_pf 0;
  current_fraction 0;
  impedance_pf 1;
  impedance_fraction 1;
};
object ZIPload {
  schedule_skew -886;
  heat_fraction 0.83;
  base_power CLOTHESWASHER*0.5962;
  power_pf 0.97;
  power_fraction 1;
  current_pf 0.97;
  current_fraction 0;
  impedance_pf 0.97;
  impedance_fraction 0;
};
object ZIPload {
  schedule_skew -886;
  heat_fraction 0.671;
  base_power REFRIGERATOR*1.1742;
  power_pf 0.97;
  power_fraction 1;
  current_pf 0.97;
  current_fraction 0;
  impedance_pf 0.97;
  impedance_fraction 0;
};
object ZIPload {
  schedule_skew -886;
  heat_fraction 0.924;
  base_power DRYER*0.6654;
  power_pf 0.9;
  power_fraction 0.1;
  current_pf 0.9;
  current_fraction 0.1;
  impedance_pf 1;
  impedance_fraction 0.8;
};
object ZIPload {
  schedule_skew -886;
  heat_fraction 0.923;
  base_power RANGE*0.4997;
  power_pf 0;
  power_fraction 0;
  current_pf 0;
  current_fraction 0;
  impedance_pf 1;
  impedance_fraction 1;
};
object ZIPload {
  schedule_skew -886;
  heat_fraction 0.693;
  base_power MICROWAVE*0.5191;
  power_pf 0.97;
  power_fraction 1;
  current_pf 0.97;
  current_fraction 0;
  impedance_pf 0.97;
  impedance_fraction 0;
};

}
object triplex_line {
	phases AS;
	from H14_meter_billing;
	to H14_ev_meter;
	length 10 ft;
	configuration TLCFG;
}

object triplex_meter {
	name H14_ev_meter;
	phases AS;
	nominal_voltage 120;
}

object load {
    name H14_ev;
    parent H14_ev_meter;
};
object triplex_line {
	phases AS;
	from H14_meter_billing;
	to H14_solar_meter;
	length 10 ft;
	configuration TLCFG;
}

object triplex_meter {
	name H14_solar_meter;
	phases AS;
	nominal_voltage 120;
	groupid inverter_meter;
}

object inverter {
	name H14_solar_inv;
    parent H14_solar_meter;
	phases AS;
	inverter_type FOUR_QUADRANT;
	power_factor 1;
	// use_multipoint_efficiency TRUE;
	inverter_manufacturer XANTREX;
	maximum_dc_power 6048.0; 
	four_quadrant_control_mode CONSTANT_PQ;
	generator_status ONLINE;
	rated_power 6048.0;	
	inverter_efficiency 0.90;
	Q_Out 0;
    P_Out 0;
	object solar {
		name H14_solar;
		// generator_mode SUPPLY_DRIVEN;
		// generator_status ONLINE;
		panel_type SINGLE_CRYSTAL_SILICON;
		orientation FIXED_AXIS; 
		rated_power 6720;
	};
}



...